new second file
adding first change after creation
new line.